    9

Ir      0.002010   -0.005058    9.743508
Ir      2.252461    2.249248   10.287754
O       1.035022    3.465515   10.898376
O       3.468478    1.036726   10.888002
O       3.289320    3.288480    9.137519
O       1.213995    1.210746    9.136725
O       2.248733    2.251681   13.729168
H       3.015723    2.854774   13.788514
H       1.488115    2.860557   13.772268
