    9

Ir      0.029896   -0.073245    9.772996
Ir      2.263051    2.302178   10.206843
O       1.055710    3.387203   10.965529
O       3.314551    1.216535   11.122047
O       3.082997    3.271536    9.046362
O       1.054703    1.285626    9.204221
O       2.267816    2.380447   15.791992
H       3.096701    2.725005   15.239656
H       1.454384    2.847217   15.332146
