    9

Ir      0.161160   -0.333081    9.800700
Ir      2.304784    2.456768   10.086509
O       1.078714    3.051795   11.273050
O       2.662985    1.941461   12.089224
O       2.198729    3.330274    8.530490
O       0.408385    1.609817    9.795087
O       2.322402    2.892234   15.650828
H       3.162586    2.329878   14.183484
H       1.767428    2.667816   14.886685
